<?xml version="1.0" encoding="UTF-8"?>

<!-- generated on 12/28/20 22:01:00 by Eclipse SUMO netedit Version 1.1.0
<configuration xmlns:xsi="http://www.w3.org/2001/XMLSchema-instance" xsi:noNamespaceSchemaLocation="http://sumo.dlr.de/xsd/netconvertConfiguration.xsd">

    <input>
        <sumo-net-file value="C:\Users\Administrator\OneDrive\IoVTNC_Revise_version_Simulation\DDPG_MC_SIM_0905\data\one_exp\multi_cross.net.xml"/>
    </input>

    <output>
        <output-file value="C:\Users\Administrator\OneDrive\IoVTNC_Revise_version_Simulation\DDPG_MC_SIM_0905\data\one_exp\multi_cross.net.xml"/>
    </output>

    <processing>
        <geometry.max-grade.fix value="false"/>
        <offset.disable-normalization value="true"/>
        <lefthand value="false"/>
    </processing>

    <junctions>
        <no-turnarounds value="true"/>
        <junctions.corner-detail value="0"/>
        <junctions.limit-turn-speed value="-1"/>
        <rectangular-lane-cut value="false"/>
    </junctions>

    <pedestrian>
        <walkingareas value="false"/>
    </pedestrian>

</configuration>
-->

<net version="1.1" xmlns:xsi="http://www.w3.org/2001/XMLSchema-instance" xsi:noNamespaceSchemaLocation="http://sumo.dlr.de/xsd/net_file.xsd">

    <location netOffset="100.00,100.00" convBoundary="-500.00,-500.00,1500.00,1500.00" origBoundary="-110.00,-110.00,110.00,110.00" projParameter="!"/>

    <type id="come_out_of_junction" priority="46" numLanes="1" speed="11.11"/>
    <type id="come_out_of_rd" priority="40" numLanes="1" speed="11.11"/>
    <type id="go_in_to_junction" priority="78" numLanes="1" speed="19.44"/>

    <edge id=":1_0" function="internal">
        <lane id=":1_0_0" index="0" speed="15.00" length="9.68" width="4.00" shape="-10.00,520.00 -10.38,517.38 -11.50,515.50 -13.38,514.38 -16.00,514.00"/>
    </edge>
    <edge id=":1_1" function="internal">
        <lane id=":1_1_0" index="0" speed="15.00" length="40.00" width="4.00" shape="-6.00,520.00 -6.00,480.00"/>
    </edge>
    <edge id=":1_2" function="internal">
        <lane id=":1_2_0" index="0" speed="15.00" length="5.44" width="4.00" shape="-2.00,520.00 -1.02,514.65"/>
    </edge>
    <edge id=":1_14" function="internal">
        <lane id=":1_14_0" index="0" speed="15.00" length="25.47" width="4.00" shape="-1.02,514.65 -0.59,512.34 3.25,505.25 8.97,500.03 16.00,498.00"/>
    </edge>
    <edge id=":1_3" function="internal">
        <lane id=":1_3_0" index="0" speed="15.00" length="9.68" width="4.00" shape="16.00,514.00 13.38,514.38 11.50,515.50 10.38,517.38 10.00,520.00"/>
    </edge>
    <edge id=":1_4" function="internal">
        <lane id=":1_4_0" index="0" speed="15.00" length="32.00" width="4.00" shape="16.00,510.00 -16.00,510.00"/>
        <lane id=":1_4_1" index="1" speed="15.00" length="32.00" width="4.00" shape="16.00,506.00 -16.00,506.00"/>
    </edge>
    <edge id=":1_6" function="internal">
        <lane id=":1_6_0" index="0" speed="15.00" length="13.21" width="4.00" shape="16.00,502.00 8.97,499.97 4.62,496.00"/>
    </edge>
    <edge id=":1_15" function="internal">
        <lane id=":1_15_0" index="0" speed="15.00" length="17.71" width="4.00" shape="4.62,496.00 3.25,494.75 -0.59,487.66 -2.00,480.00"/>
    </edge>
    <edge id=":1_7" function="internal">
        <lane id=":1_7_0" index="0" speed="15.00" length="9.68" width="4.00" shape="10.00,480.00 10.38,482.63 11.50,484.50 13.38,485.63 16.00,486.00"/>
    </edge>
    <edge id=":1_8" function="internal">
        <lane id=":1_8_0" index="0" speed="15.00" length="40.00" width="4.00" shape="6.00,480.00 6.00,520.00"/>
    </edge>
    <edge id=":1_9" function="internal">
        <lane id=":1_9_0" index="0" speed="15.00" length="16.87" width="4.00" shape="2.00,480.00 0.59,487.66 -3.25,494.75 -4.00,495.43"/>
    </edge>
    <edge id=":1_16" function="internal">
        <lane id=":1_16_0" index="0" speed="15.00" length="14.05" width="4.00" shape="-4.00,495.43 -8.97,499.97 -16.00,502.00"/>
    </edge>
    <edge id=":1_10" function="internal">
        <lane id=":1_10_0" index="0" speed="15.00" length="9.68" width="4.00" shape="-16.00,486.00 -13.38,485.63 -11.50,484.50 -10.38,482.63 -10.00,480.00"/>
    </edge>
    <edge id=":1_11" function="internal">
        <lane id=":1_11_0" index="0" speed="15.00" length="32.00" width="4.00" shape="-16.00,490.00 16.00,490.00"/>
        <lane id=":1_11_1" index="1" speed="15.00" length="32.00" width="4.00" shape="-16.00,494.00 16.00,494.00"/>
    </edge>
    <edge id=":1_13" function="internal">
        <lane id=":1_13_0" index="0" speed="15.00" length="19.50" width="4.00" shape="-16.00,498.00 -8.97,500.03 -3.25,505.25 -1.14,509.15"/>
    </edge>
    <edge id=":1_17" function="internal">
        <lane id=":1_17_0" index="0" speed="15.00" length="11.42" width="4.00" shape="-1.14,509.15 0.59,512.34 2.00,520.00"/>
    </edge>
    <edge id=":2_0" function="internal">
        <lane id=":2_0_0" index="0" speed="15.00" length="9.68" width="4.00" shape="990.00,520.00 989.63,517.38 988.50,515.50 986.63,514.38 984.00,514.00"/>
    </edge>
    <edge id=":2_1" function="internal">
        <lane id=":2_1_0" index="0" speed="15.00" length="40.00" width="4.00" shape="994.00,520.00 994.00,480.00"/>
    </edge>
    <edge id=":2_2" function="internal">
        <lane id=":2_2_0" index="0" speed="15.00" length="21.63" width="4.00" shape="998.00,520.00 999.41,512.34 1003.25,505.25 1007.52,501.35"/>
    </edge>
    <edge id=":2_14" function="internal">
        <lane id=":2_14_0" index="0" speed="15.00" length="9.28" width="4.00" shape="1007.52,501.35 1008.97,500.03 1016.00,498.00"/>
    </edge>
    <edge id=":2_3" function="internal">
        <lane id=":2_3_0" index="0" speed="15.00" length="9.68" width="4.00" shape="1016.00,514.00 1013.38,514.38 1011.50,515.50 1010.38,517.38 1010.00,520.00"/>
    </edge>
    <edge id=":2_4" function="internal">
        <lane id=":2_4_0" index="0" speed="15.00" length="32.00" width="4.00" shape="1016.00,510.00 984.00,510.00"/>
        <lane id=":2_4_1" index="1" speed="15.00" length="32.00" width="4.00" shape="1016.00,506.00 984.00,506.00"/>
    </edge>
    <edge id=":2_6" function="internal">
        <lane id=":2_6_0" index="0" speed="15.00" length="3.46" width="4.00" shape="1016.00,502.00 1012.68,501.04"/>
    </edge>
    <edge id=":2_15" function="internal">
        <lane id=":2_15_0" index="0" speed="15.00" length="27.46" width="4.00" shape="1012.68,501.04 1008.97,499.97 1003.25,494.75 999.41,487.66 998.00,480.00"/>
    </edge>
    <edge id=":2_7" function="internal">
        <lane id=":2_7_0" index="0" speed="15.00" length="9.68" width="4.00" shape="1010.00,480.00 1010.38,482.63 1011.50,484.50 1013.38,485.63 1016.00,486.00"/>
    </edge>
    <edge id=":2_8" function="internal">
        <lane id=":2_8_0" index="0" speed="15.00" length="40.00" width="4.00" shape="1006.00,480.00 1006.00,520.00"/>
    </edge>
    <edge id=":2_9" function="internal">
        <lane id=":2_9_0" index="0" speed="15.00" length="16.87" width="4.00" shape="1002.00,480.00 1000.59,487.66 996.75,494.75 996.00,495.43"/>
    </edge>
    <edge id=":2_16" function="internal">
        <lane id=":2_16_0" index="0" speed="15.00" length="14.05" width="4.00" shape="996.00,495.43 991.03,499.97 984.00,502.00"/>
    </edge>
    <edge id=":2_10" function="internal">
        <lane id=":2_10_0" index="0" speed="15.00" length="9.68" width="4.00" shape="984.00,486.00 986.63,485.63 988.50,484.50 989.63,482.63 990.00,480.00"/>
    </edge>
    <edge id=":2_11" function="internal">
        <lane id=":2_11_0" index="0" speed="15.00" length="32.00" width="4.00" shape="984.00,490.00 1016.00,490.00"/>
        <lane id=":2_11_1" index="1" speed="15.00" length="32.00" width="4.00" shape="984.00,494.00 1016.00,494.00"/>
    </edge>
    <edge id=":2_13" function="internal">
        <lane id=":2_13_0" index="0" speed="15.00" length="13.21" width="4.00" shape="984.00,498.00 991.03,500.03 995.38,504.00"/>
    </edge>
    <edge id=":2_17" function="internal">
        <lane id=":2_17_0" index="0" speed="15.00" length="17.71" width="4.00" shape="995.38,504.00 996.75,505.25 1000.59,512.34 1002.00,520.00"/>
    </edge>
    <edge id=":3_0" function="internal">
        <lane id=":3_0_0" index="0" speed="15.00" length="9.68" width="4.00" shape="486.00,16.00 485.63,13.38 484.50,11.50 482.63,10.38 480.00,10.00"/>
    </edge>
    <edge id=":3_1" function="internal">
        <lane id=":3_1_0" index="0" speed="14.45" length="32.00" width="4.00" shape="490.00,16.00 490.00,-16.00"/>
        <lane id=":3_1_1" index="1" speed="14.45" length="32.00" width="4.00" shape="494.00,16.00 494.00,-16.00"/>
    </edge>
    <edge id=":3_3" function="internal">
        <lane id=":3_3_0" index="0" speed="15.00" length="13.21" width="4.00" shape="498.00,16.00 500.03,8.97 504.00,4.62"/>
    </edge>
    <edge id=":3_14" function="internal">
        <lane id=":3_14_0" index="0" speed="15.00" length="17.71" width="4.00" shape="504.00,4.62 505.25,3.25 512.34,-0.59 520.00,-2.00"/>
    </edge>
    <edge id=":3_4" function="internal">
        <lane id=":3_4_0" index="0" speed="15.00" length="9.68" width="4.00" shape="520.00,10.00 517.38,10.38 515.50,11.50 514.38,13.38 514.00,16.00"/>
    </edge>
    <edge id=":3_5" function="internal">
        <lane id=":3_5_0" index="0" speed="15.00" length="40.00" width="4.00" shape="520.00,6.00 480.00,6.00"/>
    </edge>
    <edge id=":3_6" function="internal">
        <lane id=":3_6_0" index="0" speed="14.45" length="16.87" width="4.00" shape="520.00,2.00 512.34,0.59 505.25,-3.25 504.57,-4.00"/>
    </edge>
    <edge id=":3_15" function="internal">
        <lane id=":3_15_0" index="0" speed="14.45" length="14.05" width="4.00" shape="504.57,-4.00 500.03,-8.97 498.00,-16.00"/>
    </edge>
    <edge id=":3_7" function="internal">
        <lane id=":3_7_0" index="0" speed="14.45" length="9.68" width="4.00" shape="514.00,-16.00 514.38,-13.38 515.50,-11.50 517.38,-10.38 520.00,-10.00"/>
    </edge>
    <edge id=":3_8" function="internal">
        <lane id=":3_8_0" index="0" speed="14.45" length="32.00" width="4.00" shape="510.00,-16.00 510.00,16.00"/>
        <lane id=":3_8_1" index="1" speed="14.45" length="32.00" width="4.00" shape="506.00,-16.00 506.00,16.00"/>
    </edge>
    <edge id=":3_10" function="internal">
        <lane id=":3_10_0" index="0" speed="14.45" length="13.21" width="4.00" shape="502.00,-16.00 499.97,-8.97 496.00,-4.62"/>
    </edge>
    <edge id=":3_16" function="internal">
        <lane id=":3_16_0" index="0" speed="14.45" length="17.71" width="4.00" shape="496.00,-4.62 494.75,-3.25 487.66,0.59 480.00,2.00"/>
    </edge>
    <edge id=":3_11" function="internal">
        <lane id=":3_11_0" index="0" speed="14.45" length="9.68" width="4.00" shape="480.00,-10.00 482.63,-10.38 484.50,-11.50 485.63,-13.38 486.00,-16.00"/>
    </edge>
    <edge id=":3_12" function="internal">
        <lane id=":3_12_0" index="0" speed="15.00" length="40.00" width="4.00" shape="480.00,-6.00 520.00,-6.00"/>
    </edge>
    <edge id=":3_13" function="internal">
        <lane id=":3_13_0" index="0" speed="15.00" length="30.91" width="4.00" shape="480.00,-2.00 487.66,-0.59 494.75,3.25 499.97,8.97 502.00,16.00"/>
    </edge>
    <edge id=":4_0" function="internal">
        <lane id=":4_0_0" index="0" speed="15.00" length="9.68" width="4.00" shape="486.00,1016.00 485.63,1013.38 484.50,1011.50 482.63,1010.38 480.00,1010.00"/>
    </edge>
    <edge id=":4_1" function="internal">
        <lane id=":4_1_0" index="0" speed="15.00" length="32.00" width="4.00" shape="490.00,1016.00 490.00,984.00"/>
        <lane id=":4_1_1" index="1" speed="15.00" length="32.00" width="4.00" shape="494.00,1016.00 494.00,984.00"/>
    </edge>
    <edge id=":4_3" function="internal">
        <lane id=":4_3_0" index="0" speed="15.00" length="19.50" width="4.00" shape="498.00,1016.00 500.03,1008.97 505.25,1003.25 509.15,1001.14"/>
    </edge>
    <edge id=":4_14" function="internal">
        <lane id=":4_14_0" index="0" speed="15.00" length="11.42" width="4.00" shape="509.15,1001.14 512.34,999.41 520.00,998.00"/>
    </edge>
    <edge id=":4_4" function="internal">
        <lane id=":4_4_0" index="0" speed="15.00" length="9.68" width="4.00" shape="520.00,1010.00 517.38,1010.38 515.50,1011.50 514.38,1013.38 514.00,1016.00"/>
    </edge>
    <edge id=":4_5" function="internal">
        <lane id=":4_5_0" index="0" speed="15.00" length="40.00" width="4.00" shape="520.00,1006.00 480.00,1006.00"/>
    </edge>
    <edge id=":4_6" function="internal">
        <lane id=":4_6_0" index="0" speed="15.00" length="5.44" width="4.00" shape="520.00,1002.00 514.65,1001.02"/>
    </edge>
    <edge id=":4_15" function="internal">
        <lane id=":4_15_0" index="0" speed="15.00" length="25.47" width="4.00" shape="514.65,1001.02 512.34,1000.59 505.25,996.75 500.03,991.03 498.00,984.00"/>
    </edge>
    <edge id=":4_7" function="internal">
        <lane id=":4_7_0" index="0" speed="15.00" length="9.68" width="4.00" shape="514.00,984.00 514.38,986.63 515.50,988.50 517.38,989.63 520.00,990.00"/>
    </edge>
    <edge id=":4_8" function="internal">
        <lane id=":4_8_0" index="0" speed="15.00" length="32.00" width="4.00" shape="510.00,984.00 510.00,1016.00"/>
        <lane id=":4_8_1" index="1" speed="15.00" length="32.00" width="4.00" shape="506.00,984.00 506.00,1016.00"/>
    </edge>
    <edge id=":4_10" function="internal">
        <lane id=":4_10_0" index="0" speed="15.00" length="13.21" width="4.00" shape="502.00,984.00 499.97,991.03 496.00,995.38"/>
    </edge>
    <edge id=":4_16" function="internal">
        <lane id=":4_16_0" index="0" speed="15.00" length="17.71" width="4.00" shape="496.00,995.38 494.75,996.75 487.66,1000.59 480.00,1002.00"/>
    </edge>
    <edge id=":4_11" function="internal">
        <lane id=":4_11_0" index="0" speed="15.00" length="9.68" width="4.00" shape="480.00,990.00 482.63,989.63 484.50,988.50 485.63,986.63 486.00,984.00"/>
    </edge>
    <edge id=":4_12" function="internal">
        <lane id=":4_12_0" index="0" speed="15.00" length="40.00" width="4.00" shape="480.00,994.00 520.00,994.00"/>
    </edge>
    <edge id=":4_13" function="internal">
        <lane id=":4_13_0" index="0" speed="15.00" length="16.87" width="4.00" shape="480.00,998.00 487.66,999.41 494.75,1003.25 495.43,1004.00"/>
    </edge>
    <edge id=":4_17" function="internal">
        <lane id=":4_17_0" index="0" speed="15.00" length="14.05" width="4.00" shape="495.43,1004.00 499.97,1008.97 502.00,1016.00"/>
    </edge>
    <edge id=":gneJ2_0" function="internal">
        <lane id=":gneJ2_0_0" index="0" speed="15.00" length="9.68" width="4.00" shape="-10.00,1016.00 -10.38,1013.38 -11.50,1011.50 -13.38,1010.38 -16.00,1010.00"/>
    </edge>
    <edge id=":gneJ2_1" function="internal">
        <lane id=":gneJ2_1_0" index="0" speed="15.00" length="32.00" width="4.00" shape="-10.00,1016.00 -10.00,984.00"/>
        <lane id=":gneJ2_1_1" index="1" speed="15.00" length="32.00" width="4.00" shape="-6.00,1016.00 -6.00,984.00"/>
    </edge>
    <edge id=":gneJ2_3" function="internal">
        <lane id=":gneJ2_3_0" index="0" speed="15.00" length="9.66" width="4.00" shape="-2.00,1016.00 -0.88,1008.13 0.00,1006.67"/>
    </edge>
    <edge id=":gneJ2_18" function="internal">
        <lane id=":gneJ2_18_0" index="0" speed="15.00" length="19.37" width="4.00" shape="0.00,1006.67 2.50,1002.50 8.13,999.13 16.00,998.00"/>
    </edge>
    <edge id=":gneJ2_4" function="internal">
        <lane id=":gneJ2_4_0" index="0" speed="15.00" length="9.68" width="4.00" shape="16.00,1010.00 13.38,1010.38 11.50,1011.50 10.38,1013.38 10.00,1016.00"/>
    </edge>
    <edge id=":gneJ2_5" function="internal">
        <lane id=":gneJ2_5_0" index="0" speed="15.00" length="32.00" width="4.00" shape="16.00,1010.00 -16.00,1010.00"/>
        <lane id=":gneJ2_5_1" index="1" speed="15.00" length="32.00" width="4.00" shape="16.00,1006.00 -16.00,1006.00"/>
    </edge>
    <edge id=":gneJ2_7" function="internal">
        <lane id=":gneJ2_7_0" index="0" speed="15.00" length="29.03" width="4.00" shape="16.00,1002.00 8.13,1000.88 2.50,997.50 -0.88,991.88 -2.00,984.00"/>
    </edge>
    <edge id=":gneJ2_8" function="internal">
        <lane id=":gneJ2_8_0" index="0" speed="15.00" length="9.68" width="4.00" shape="10.00,984.00 10.38,986.63 11.50,988.50 13.38,989.63 16.00,990.00"/>
    </edge>
    <edge id=":gneJ2_9" function="internal">
        <lane id=":gneJ2_9_0" index="0" speed="15.00" length="32.00" width="4.00" shape="10.00,984.00 10.00,1016.00"/>
        <lane id=":gneJ2_9_1" index="1" speed="15.00" length="32.00" width="4.00" shape="6.00,984.00 6.00,1016.00"/>
        <lane id=":gneJ2_9_2" index="2" speed="15.00" length="32.00" width="4.00" shape="2.00,984.00 2.00,1016.00"/>
    </edge>
    <edge id=":gneJ2_12" function="internal">
        <lane id=":gneJ2_12_0" index="0" speed="15.00" length="16.26" width="4.00" shape="2.00,984.00 0.88,991.88 -2.50,997.50 -4.00,998.40"/>
    </edge>
    <edge id=":gneJ2_19" function="internal">
        <lane id=":gneJ2_19_0" index="0" speed="15.00" length="12.77" width="4.00" shape="-4.00,998.40 -8.13,1000.88 -16.00,1002.00"/>
    </edge>
    <edge id=":gneJ2_13" function="internal">
        <lane id=":gneJ2_13_0" index="0" speed="15.00" length="9.68" width="4.00" shape="-16.00,990.00 -13.38,989.63 -11.50,988.50 -10.38,986.63 -10.00,984.00"/>
    </edge>
    <edge id=":gneJ2_14" function="internal">
        <lane id=":gneJ2_14_0" index="0" speed="15.00" length="32.00" width="4.00" shape="-16.00,990.00 16.00,990.00"/>
        <lane id=":gneJ2_14_1" index="1" speed="15.00" length="32.00" width="4.00" shape="-16.00,994.00 16.00,994.00"/>
        <lane id=":gneJ2_14_2" index="2" speed="15.00" length="32.00" width="4.00" shape="-16.00,998.00 16.00,998.00"/>
    </edge>
    <edge id=":gneJ2_17" function="internal">
        <lane id=":gneJ2_17_0" index="0" speed="15.00" length="16.26" width="4.00" shape="-16.00,998.00 -8.13,999.13 -2.50,1002.50 -1.60,1004.00"/>
    </edge>
    <edge id=":gneJ2_20" function="internal">
        <lane id=":gneJ2_20_0" index="0" speed="15.00" length="12.77" width="4.00" shape="-1.60,1004.00 0.88,1008.13 2.00,1016.00"/>
    </edge>
    <edge id=":gneJ3_0" function="internal">
        <lane id=":gneJ3_0_0" index="0" speed="15.00" length="9.68" width="4.00" shape="-10.00,16.00 -10.38,13.38 -11.50,11.50 -13.38,10.38 -16.00,10.00"/>
    </edge>
    <edge id=":gneJ3_1" function="internal">
        <lane id=":gneJ3_1_0" index="0" speed="15.00" length="32.00" width="4.00" shape="-10.00,16.00 -10.00,-16.00"/>
        <lane id=":gneJ3_1_1" index="1" speed="15.00" length="32.00" width="4.00" shape="-6.00,16.00 -6.00,-16.00"/>
    </edge>
    <edge id=":gneJ3_3" function="internal">
        <lane id=":gneJ3_3_0" index="0" speed="15.00" length="29.03" width="4.00" shape="-2.00,16.00 -0.88,8.13 2.50,2.50 8.13,-0.88 16.00,-2.00"/>
    </edge>
    <edge id=":gneJ3_4" function="internal">
        <lane id=":gneJ3_4_0" index="0" speed="15.00" length="9.68" width="4.00" shape="16.00,10.00 13.38,10.38 11.50,11.50 10.38,13.38 10.00,16.00"/>
    </edge>
    <edge id=":gneJ3_5" function="internal">
        <lane id=":gneJ3_5_0" index="0" speed="15.00" length="32.00" width="4.00" shape="16.00,10.00 -16.00,10.00"/>
        <lane id=":gneJ3_5_1" index="1" speed="15.00" length="32.00" width="4.00" shape="16.00,6.00 -16.00,6.00"/>
        <lane id=":gneJ3_5_2" index="2" speed="15.00" length="32.00" width="4.00" shape="16.00,2.00 -16.00,2.00"/>
    </edge>
    <edge id=":gneJ3_8" function="internal">
        <lane id=":gneJ3_8_0" index="0" speed="15.00" length="16.26" width="4.00" shape="16.00,2.00 8.13,0.88 2.50,-2.50 1.60,-4.00"/>
    </edge>
    <edge id=":gneJ3_18" function="internal">
        <lane id=":gneJ3_18_0" index="0" speed="15.00" length="12.77" width="4.00" shape="1.60,-4.00 -0.88,-8.13 -2.00,-16.00"/>
    </edge>
    <edge id=":gneJ3_9" function="internal">
        <lane id=":gneJ3_9_0" index="0" speed="15.00" length="9.68" width="4.00" shape="10.00,-16.00 10.38,-13.38 11.50,-11.50 13.38,-10.38 16.00,-10.00"/>
    </edge>
    <edge id=":gneJ3_10" function="internal">
        <lane id=":gneJ3_10_0" index="0" speed="15.00" length="32.00" width="4.00" shape="10.00,-16.00 10.00,16.00"/>
        <lane id=":gneJ3_10_1" index="1" speed="15.00" length="32.00" width="4.00" shape="6.00,-16.00 6.00,16.00"/>
        <lane id=":gneJ3_10_2" index="2" speed="15.00" length="32.00" width="4.00" shape="2.00,-16.00 2.00,16.00"/>
    </edge>
    <edge id=":gneJ3_13" function="internal">
        <lane id=":gneJ3_13_0" index="0" speed="15.00" length="16.26" width="4.00" shape="2.00,-16.00 0.88,-8.13 -2.50,-2.50 -4.00,-1.60"/>
    </edge>
    <edge id=":gneJ3_19" function="internal">
        <lane id=":gneJ3_19_0" index="0" speed="15.00" length="12.77" width="4.00" shape="-4.00,-1.60 -8.13,0.88 -16.00,2.00"/>
    </edge>
    <edge id=":gneJ3_14" function="internal">
        <lane id=":gneJ3_14_0" index="0" speed="15.00" length="9.68" width="4.00" shape="-16.00,-10.00 -13.38,-10.38 -11.50,-11.50 -10.38,-13.38 -10.00,-16.00"/>
    </edge>
    <edge id=":gneJ3_15" function="internal">
        <lane id=":gneJ3_15_0" index="0" speed="15.00" length="32.00" width="4.00" shape="-16.00,-10.00 16.00,-10.00"/>
        <lane id=":gneJ3_15_1" index="1" speed="15.00" length="32.00" width="4.00" shape="-16.00,-6.00 16.00,-6.00"/>
    </edge>
    <edge id=":gneJ3_17" function="internal">
        <lane id=":gneJ3_17_0" index="0" speed="15.00" length="9.66" width="4.00" shape="-16.00,-2.00 -8.13,-0.88 -6.67,-0.00"/>
    </edge>
    <edge id=":gneJ3_20" function="internal">
        <lane id=":gneJ3_20_0" index="0" speed="15.00" length="19.37" width="4.00" shape="-6.67,-0.00 -2.50,2.50 0.88,8.13 2.00,16.00"/>
    </edge>
    <edge id=":gneJ4_0" function="internal">
        <lane id=":gneJ4_0_0" index="0" speed="15.00" length="9.68" width="4.00" shape="990.00,16.00 989.63,13.38 988.50,11.50 986.63,10.38 984.00,10.00"/>
    </edge>
    <edge id=":gneJ4_1" function="internal">
        <lane id=":gneJ4_1_0" index="0" speed="15.00" length="32.00" width="4.00" shape="990.00,16.00 990.00,-16.00"/>
        <lane id=":gneJ4_1_1" index="1" speed="15.00" length="32.00" width="4.00" shape="994.00,16.00 994.00,-16.00"/>
        <lane id=":gneJ4_1_2" index="2" speed="15.00" length="32.00" width="4.00" shape="998.00,16.00 998.00,-16.00"/>
    </edge>
    <edge id=":gneJ4_4" function="internal">
        <lane id=":gneJ4_4_0" index="0" speed="15.00" length="16.26" width="4.00" shape="998.00,16.00 999.13,8.13 1002.50,2.50 1004.00,1.60"/>
    </edge>
    <edge id=":gneJ4_18" function="internal">
        <lane id=":gneJ4_18_0" index="0" speed="15.00" length="12.77" width="4.00" shape="1004.00,1.60 1008.13,-0.88 1016.00,-2.00"/>
    </edge>
    <edge id=":gneJ4_5" function="internal">
        <lane id=":gneJ4_5_0" index="0" speed="15.00" length="9.68" width="4.00" shape="1016.00,10.00 1013.38,10.38 1011.50,11.50 1010.38,13.38 1010.00,16.00"/>
    </edge>
    <edge id=":gneJ4_6" function="internal">
        <lane id=":gneJ4_6_0" index="0" speed="15.00" length="32.00" width="4.00" shape="1016.00,10.00 984.00,10.00"/>
        <lane id=":gneJ4_6_1" index="1" speed="15.00" length="32.00" width="4.00" shape="1016.00,6.00 984.00,6.00"/>
        <lane id=":gneJ4_6_2" index="2" speed="15.00" length="32.00" width="4.00" shape="1016.00,2.00 984.00,2.00"/>
    </edge>
    <edge id=":gneJ4_9" function="internal">
        <lane id=":gneJ4_9_0" index="0" speed="15.00" length="16.26" width="4.00" shape="1016.00,2.00 1008.13,0.88 1002.50,-2.50 1001.60,-4.00"/>
    </edge>
    <edge id=":gneJ4_19" function="internal">
        <lane id=":gneJ4_19_0" index="0" speed="15.00" length="12.77" width="4.00" shape="1001.60,-4.00 999.13,-8.13 998.00,-16.00"/>
    </edge>
    <edge id=":gneJ4_10" function="internal">
        <lane id=":gneJ4_10_0" index="0" speed="15.00" length="9.68" width="4.00" shape="1010.00,-16.00 1010.38,-13.38 1011.50,-11.50 1013.38,-10.38 1016.00,-10.00"/>
    </edge>
    <edge id=":gneJ4_11" function="internal">
        <lane id=":gneJ4_11_0" index="0" speed="15.00" length="32.00" width="4.00" shape="1010.00,-16.00 1010.00,16.00"/>
        <lane id=":gneJ4_11_1" index="1" speed="15.00" length="32.00" width="4.00" shape="1006.00,-16.00 1006.00,16.00"/>
    </edge>
    <edge id=":gneJ4_13" function="internal">
        <lane id=":gneJ4_13_0" index="0" speed="15.00" length="9.66" width="4.00" shape="1002.00,-16.00 1000.88,-8.13 1000.00,-6.67"/>
    </edge>
    <edge id=":gneJ4_20" function="internal">
        <lane id=":gneJ4_20_0" index="0" speed="15.00" length="19.37" width="4.00" shape="1000.00,-6.67 997.50,-2.50 991.88,0.88 984.00,2.00"/>
    </edge>
    <edge id=":gneJ4_14" function="internal">
        <lane id=":gneJ4_14_0" index="0" speed="15.00" length="9.68" width="4.00" shape="984.00,-10.00 986.63,-10.38 988.50,-11.50 989.63,-13.38 990.00,-16.00"/>
    </edge>
    <edge id=":gneJ4_15" function="internal">
        <lane id=":gneJ4_15_0" index="0" speed="15.00" length="32.00" width="4.00" shape="984.00,-10.00 1016.00,-10.00"/>
        <lane id=":gneJ4_15_1" index="1" speed="15.00" length="32.00" width="4.00" shape="984.00,-6.00 1016.00,-6.00"/>
    </edge>
    <edge id=":gneJ4_17" function="internal">
        <lane id=":gneJ4_17_0" index="0" speed="15.00" length="29.03" width="4.00" shape="984.00,-2.00 991.88,-0.88 997.50,2.50 1000.88,8.13 1002.00,16.00"/>
    </edge>
    <edge id=":gneJ5_0" function="internal">
        <lane id=":gneJ5_0_0" index="0" speed="15.00" length="9.68" width="4.00" shape="990.00,1016.00 989.63,1013.38 988.50,1011.50 986.63,1010.38 984.00,1010.00"/>
    </edge>
    <edge id=":gneJ5_1" function="internal">
        <lane id=":gneJ5_1_0" index="0" speed="15.00" length="32.00" width="4.00" shape="990.00,1016.00 990.00,984.00"/>
        <lane id=":gneJ5_1_1" index="1" speed="15.00" length="32.00" width="4.00" shape="994.00,1016.00 994.00,984.00"/>
        <lane id=":gneJ5_1_2" index="2" speed="15.00" length="32.00" width="4.00" shape="998.00,1016.00 998.00,984.00"/>
    </edge>
    <edge id=":gneJ5_4" function="internal">
        <lane id=":gneJ5_4_0" index="0" speed="15.00" length="16.26" width="4.00" shape="998.00,1016.00 999.13,1008.13 1002.50,1002.50 1004.00,1001.60"/>
    </edge>
    <edge id=":gneJ5_18" function="internal">
        <lane id=":gneJ5_18_0" index="0" speed="15.00" length="12.77" width="4.00" shape="1004.00,1001.60 1008.13,999.13 1016.00,998.00"/>
    </edge>
    <edge id=":gneJ5_5" function="internal">
        <lane id=":gneJ5_5_0" index="0" speed="15.00" length="9.68" width="4.00" shape="1016.00,1010.00 1013.38,1010.38 1011.50,1011.50 1010.38,1013.38 1010.00,1016.00"/>
    </edge>
    <edge id=":gneJ5_6" function="internal">
        <lane id=":gneJ5_6_0" index="0" speed="15.00" length="32.00" width="4.00" shape="1016.00,1010.00 984.00,1010.00"/>
        <lane id=":gneJ5_6_1" index="1" speed="15.00" length="32.00" width="4.00" shape="1016.00,1006.00 984.00,1006.00"/>
    </edge>
    <edge id=":gneJ5_8" function="internal">
        <lane id=":gneJ5_8_0" index="0" speed="15.00" length="9.66" width="4.00" shape="1016.00,1002.00 1008.13,1000.88 1006.67,1000.00"/>
    </edge>
    <edge id=":gneJ5_19" function="internal">
        <lane id=":gneJ5_19_0" index="0" speed="15.00" length="19.37" width="4.00" shape="1006.67,1000.00 1002.50,997.50 999.13,991.88 998.00,984.00"/>
    </edge>
    <edge id=":gneJ5_9" function="internal">
        <lane id=":gneJ5_9_0" index="0" speed="15.00" length="9.68" width="4.00" shape="1010.00,984.00 1010.38,986.63 1011.50,988.50 1013.38,989.63 1016.00,990.00"/>
    </edge>
    <edge id=":gneJ5_10" function="internal">
        <lane id=":gneJ5_10_0" index="0" speed="15.00" length="32.00" width="4.00" shape="1010.00,984.00 1010.00,1016.00"/>
        <lane id=":gneJ5_10_1" index="1" speed="15.00" length="32.00" width="4.00" shape="1006.00,984.00 1006.00,1016.00"/>
    </edge>
    <edge id=":gneJ5_12" function="internal">
        <lane id=":gneJ5_12_0" index="0" speed="15.00" length="29.03" width="4.00" shape="1002.00,984.00 1000.88,991.88 997.50,997.50 991.88,1000.88 984.00,1002.00"/>
    </edge>
    <edge id=":gneJ5_13" function="internal">
        <lane id=":gneJ5_13_0" index="0" speed="15.00" length="9.68" width="4.00" shape="984.00,990.00 986.63,989.63 988.50,988.50 989.63,986.63 990.00,984.00"/>
    </edge>
    <edge id=":gneJ5_14" function="internal">
        <lane id=":gneJ5_14_0" index="0" speed="15.00" length="32.00" width="4.00" shape="984.00,990.00 1016.00,990.00"/>
        <lane id=":gneJ5_14_1" index="1" speed="15.00" length="32.00" width="4.00" shape="984.00,994.00 1016.00,994.00"/>
        <lane id=":gneJ5_14_2" index="2" speed="15.00" length="32.00" width="4.00" shape="984.00,998.00 1016.00,998.00"/>
    </edge>
    <edge id=":gneJ5_17" function="internal">
        <lane id=":gneJ5_17_0" index="0" speed="15.00" length="16.26" width="4.00" shape="984.00,998.00 991.88,999.13 997.50,1002.50 998.40,1004.00"/>
    </edge>
    <edge id=":gneJ5_20" function="internal">
        <lane id=":gneJ5_20_0" index="0" speed="15.00" length="12.77" width="4.00" shape="998.40,1004.00 1000.88,1008.13 1002.00,1016.00"/>
    </edge>
    <edge id=":node0_0" function="internal">
        <lane id=":node0_0_0" index="0" speed="15.00" length="9.68" width="4.00" shape="486.00,520.00 485.63,517.38 484.50,515.50 482.63,514.38 480.00,514.00"/>
    </edge>